      47
 i =       15, E =      -316.3275148014
  O        15.5140339911        9.7485567485       12.5290844919
  N        13.5245731819       14.8261891823       15.7466028736
  C        11.9002147677        9.0497882817        8.8664142222
  H        11.4871091381        9.9127797989        9.3728440927
  C        11.2411345820        8.5437809162        7.7623932770
  H        10.3249716154        9.0061794346        7.4187981599
  C        11.7530954704        7.4364105849        7.0967196490
  C        12.9213292892        6.8343241343        7.5440561967
  H        13.3147293481        5.9652368606        7.0314880987
  C        13.5757948365        7.3466062375        8.6480354892
  H        14.4884665071        6.8758778306        8.9946484885
  C        13.0828599168        8.4647610502        9.3283323881
  C        13.8318674049        8.9608689071       10.4727483651
  H        14.7382131501        8.4141900208       10.7221843314
  C        13.5534825584       10.0158267097       11.2480133787
  H        12.6854280500       10.6380034479       11.0726825926
  C        14.4819939514       10.3803238025       12.3416455015
  C        14.1613751537       11.5512376020       13.2003137030
  C        15.2085377625       12.1384553800       13.9155979649
  H        16.2030013841       11.7262553519       13.8020383428
  C        14.9855013304       13.2241439853       14.7320496136
  H        15.7997757075       13.7011659447       15.2631596691
  C        13.6903501131       13.7191382052       14.9080220308
  C        12.6367172578       13.1357277258       14.2024962567
  H        11.6356777900       13.5395635333       14.3003447436
  C        12.8776032596       12.0736479917       13.3461069046
  H        12.0419343115       11.6395138995       12.8109393410
  C        12.5783591903       14.8312887697       16.6012709575
  H        11.9173604404       13.9663909952       16.7402692821
  C        12.3372426392       15.9761779009       17.4769017636
  C        13.1128341181       17.1330220975       17.3808861649
  H        13.8992618580       17.1754482894       16.6377573483
  C        12.8763397723       18.1994821585       18.2234924865
  H        13.4754717727       19.0977782565       18.1475261817
  C        11.8598954017       18.1221529111       19.1712760104
  C        11.0817837784       16.9789309745       19.2761131644
  H        10.2913775462       16.9265218942       20.0136356291
  C        11.3220616171       15.9102380773       18.4287612298
  H        10.7159931979       15.0141438502       18.5085263366
  C        11.0760202344        6.8899440243        5.8778369215
  C        11.6449878836       19.2590450249       20.1225639745
  F         9.8053769016        7.3170659774        5.7554279659
  F        11.7170063713        7.2458838660        4.7388541695
  F        11.0385640501        5.5405441970        5.8911146224
  F        10.3584343901       19.3637266461       20.5166512596
  F        11.9867608515       20.4460215497       19.5745680006
  F        12.3864832821       19.1006354840       21.2499288934
