     188
 i =       67, E =     -1267.7782768177
  O         6.8028366215        5.8185570379        5.4702762677
  O         2.1996846906        8.3630634408       11.3948368109
  N         4.3190451368       10.3515824177        9.1159966572
  N         4.6834746195        3.8300284484        7.7491227576
  C         2.7723779213        4.7490670272        2.3591947369
  C         6.2301460817        9.4325380018       14.5059337711
  H         2.4322785442        5.6623307930        2.8478786941
  H         6.5702372556        8.5192717170       14.0172545674
  C         1.9886601879        4.1840065853        1.3584858415
  C         7.0138628111        9.9976080140       15.5066387371
  H         1.0729232780        4.6746472154        1.0353735798
  H         7.9295968562        9.5069605824       15.8297483602
  C         2.4196194444        2.9990523675        0.7423887448
  C         6.5829047686       11.1825646094       16.1227304767
  C         3.6039483906        2.3630475723        1.1280373342
  C         5.3985758763       11.8185701594       15.7370804682
  H         3.9095285308        1.4335218109        0.6467518999
  H         5.0929987624       12.7480963196       16.2183672722
  C         4.3789024071        2.9305953570        2.1338967048
  C         4.6236291877       11.2510106161       14.7312245696
  H         5.2937408712        2.4405032817        2.4647906856
  H         3.7087924645       11.7411002710       14.4003313086
  C         3.9865643730        4.1455435871        2.7360189088
  C         5.0159506396       10.0360536341       14.1291147980
  C         4.8860692934        4.7239308765        3.7136107624
  C         4.1164668035        9.4576852453       13.1514971229
  H         5.7292522060        4.1084143582        4.0363740188
  H         3.2732633660       10.0731924410       12.8287534616
  C         4.7660997469        5.9560401358        4.2546065308
  C         4.2364082381        8.2255630185       12.6105256888
  H         3.9464960963        6.6113761222        3.9739212403
  H         5.0560306511        7.5702344800       12.8911893576
  C         5.6948768504        6.3723377918        5.3090778459
  C         3.3076607931        7.8092826856       11.5560321157
  C         5.2414490526        7.4146688835        6.2564369777
  C         3.7610640872        6.7669449408       10.6086811835
  C         6.0560325679        7.6333972398        7.3849736134
  C         2.9464781287        6.5482070551        9.4801485096
  H         6.9481018401        7.0244393354        7.4888701575
  H         2.0544163585        7.1571708235        9.3762469277
  C         5.7002278148        8.5709094418        8.3340222119
  C         3.3022936573        5.6107033859        8.5310951392
  H         6.3044939738        8.7324489417        9.2276707451
  H         2.6980273038        5.4491624596        7.6374474579
  C         4.5364666562        9.3392515767        8.1703346231
  C         4.4660542238        4.8423591456        8.6947850607
  C         3.7021151479        9.1185853995        7.0567896488
  C         5.3004020214        5.0630265852        9.8083337685
  H         2.8246800723        9.7442472644        6.8938930970
  H         6.1778400386        4.4373644539        9.9712293080
  C         4.0499722768        8.1447599619        6.1175361898
  C         4.9525409159        6.0368495846       10.7475861512
  H         3.3780085508        7.9678904840        5.2800912325
  H         5.6245032006        6.2137201537       11.5850292071
  C         3.1197790663       10.6354264038        9.4906025692
  C         5.8827453616        3.5461922650        7.3745210792
  H         2.2258805485       10.0857675864        9.1429875599
  H         6.7766438539        4.0958459995        7.7221418758
  C         2.9006943136       11.6709377257       10.4906909620
  C         6.1018347386        2.5106778895        6.3744328654
  C         3.8731218840       12.6721737637       10.6848350979
  C         5.1294088118        1.5094440837        6.1802852304
  H         3.6140877544        2.5946488024       10.0297100860
  H         5.3884395910       11.5869814141        6.8354004080
  C         2.5669579598        3.5026444209       11.6880727734
  C         6.4355724147       10.6789790810        5.1770433619
  H         3.3022159824        4.2920842642       11.8370757317
  H         5.7003096299        9.8895410144        5.0280432892
  C         7.0709338136        3.4290359281       12.5002853296
  C         1.9315945142       10.7525881881        4.3648346429
  C         7.2257800081       12.5468871442       12.3216212295
  C         1.7767473724        1.6347371542        4.5434956970
  H         6.3616715993       12.4832107893       12.9805994802
  H         2.6408551298        1.6984164688        3.8845154304
  C         7.3938095327       11.6184476518       11.2940721985
  C         1.6087178618        2.5631725269        5.5710487542
  H         6.6513684698       10.8360851950       11.1318087433
  H         2.3511594776        3.3455354553        5.7333123275
  C         3.9061356819        6.4747959286       16.4599921543
  C         5.0963977733        7.7068145843        0.4051231331
  C         6.9108023228        4.4247675033       13.6026847771
  C         2.0917233873        9.7568576998        3.2624290438
  F         2.6794981911        7.0639598307       16.2420446231
  F         6.3230363527        7.1176452049        0.6230702660
  F         4.6228363045        6.6169424632       15.2983224868
  F         4.3796925874        7.5646782055        1.5667914724
  F         3.7286030136        5.1222495811       16.6280927816
  F         5.2739363448        9.0593624225        0.2370225148
  F         5.5910053873        4.6162004131       13.9019474547
  F         3.4115214767        9.5654219664        2.9631665010
  F         7.4367823915        5.6533588018       13.2736480313
  F         1.5657448174        8.5282644593        3.5914654560
  F         7.5637340273        4.0351427535       14.7535098535
  F         1.4387943387       10.1464792529        2.1116024701
  O         7.9295917076       15.9324919888        5.4702756417
  O         3.3264393746       18.4769983851       11.3948361325
  N         5.4458048548       20.4655250437        9.1159923275
  N         5.8102342291       13.9439714051        7.7491188213
  C         3.8991329533       14.8630088380        2.3591879529
  C         7.3569009364       19.5464798443       14.5059269530
  H         3.5590405173       15.7762756308        2.8478703935
  H         7.6969985074       18.6332160612       14.0172462787
  C         3.1154190152       14.2979436101        1.3584795063
  C         8.1406213252       20.1115447063       15.5066326418
  H         2.1996834971       14.7885874207        1.0353722112
  H         9.0563564881       19.6209002034       15.8297466626
  C         3.5463773850       13.1129876370        0.7423842907
  C         7.7096625271       21.2964998584       16.1227256710
  C         4.7307073297       12.4769826186        1.1280309646
  C         6.5253349993       21.9325055783       15.7370745110
  H         5.0362878765       11.5474576148        0.6467470513
  H         6.2197582131       22.8620324551       16.2183627193
  C         5.5056547674       13.0445374527        2.1338891734
  C         5.7503815439       21.3649526445       14.7312169889
  H         6.4204943668       12.5544531350        2.4647820719
  H         4.8355464831       21.8550501706       14.4003229023
  C         5.1133207931       14.2594860901        2.7360089595
  C         6.1427069463       20.1499956189       14.1291042610
  C         6.0128316635       14.8378738877        3.7135915399
  C         5.2432280801       19.5716295924       13.1514800163
  H         6.8560108688       14.2223614034        4.0363690246
  H         4.4000214823       20.1871397101       12.8287487018
  C         5.8928505726       16.0699771752        4.2546114577
  C         5.3631589834       18.3394999797       12.6105288777
  H         5.0732572468       16.7253181622        3.9739179160
  H         6.1827901666       17.6841772842       12.8911854695
  C         6.8216451357       16.4862776344        5.3090701572
  C         4.4344269420       17.9232228489       11.5560248765
  C         6.3682132063       17.5286093747        6.2564299819
  C         4.8878273304       16.8808854333       10.6086750947
  C         7.1827939758       17.7473401931        7.3849684133
  C         4.0732393556       16.6621505951        9.4801431760
  H         8.0748618046       17.1383823408        7.4888650532
  H         3.1811759985       17.2711139023        9.3762418012
  C         6.8269880956       18.6848530874        8.3340167100
  C         4.4290535275       15.7246471278        8.5310899758
  H         7.4312546561       18.8463920558        9.2276668707
  H         3.8247882030       15.5631062105        7.6374433657
  C         5.6632261414       19.4531965697        8.1703285989
  C         5.5928135142       14.9563047172        8.6947790651
  C         4.8288764937       19.2325314348        7.0567792647
  C         6.4271627163       15.1769732627        9.8083237455
  H         3.9514384300       19.8581935247        6.8938855072
  H         7.3045977629       14.5513113062        9.9712221262
  C         5.1767324743       18.2587000671        6.1175322256
  C         6.0793002847       16.1507901100       10.7475819433
  H         4.5047732016       18.0818355583        5.2800851911
  H         6.7512669096       16.3276657795       11.5850232511
  C         4.2465354207       20.7493598629        9.4905997689
  C         7.0095019426       13.6601260902        7.3745176775
  H         3.3526387205       20.1997047971        9.1429799056
  H         7.9034022536       14.2097826150        7.7221350750
  C         4.0274481227       21.7848741805       10.4906867625
  C         7.2285887424       12.6246145315        6.3744289932
  C         4.9998758269       22.7861070983       10.6848321379
  C         6.2561625103       11.6233777932        6.1802821262
  H         4.7408461839       12.7085690534       10.0297175404
  H         6.5151981408       21.7009015203        6.8354079007
  C         3.6937124905       13.6165721582       11.6880738146
  C         7.5623269741       20.7929063872        5.1770446626
  H         4.4289746831       14.4060099099       11.8370747043
  H         6.8270685029       20.0034665258        5.0280423275
  C         8.1976889526       13.5429653723       12.5002813995
  C         3.0583499123       20.8665167345        4.3648304448
  C         8.3525361029       22.6608156164       12.3216221574
  C         2.9035034480       11.7486656902        4.5434968553
  H         7.4884283299       22.5971364439       12.9806018752
  H         3.7676116841       11.8123424560        3.8845178148
  C         8.5205643232       21.7323790493       11.2940703944
  C         2.7354724314       12.6771040768        5.5710466822
  H         7.7781238509       20.9500141914       11.1318065294
  H         3.4779145982       13.4594643161        5.7333101613
  C         5.0328889284       16.5887348744       16.4599896788
  C         6.2231517157       17.8207532031        0.4051204900
  C         8.0375593949       14.5386960096       13.6026846543
  C         3.2184806598       19.8707859744        3.2624288139
  F         3.8062506550       17.1778989910       16.2420417424
  F         7.4497895783       17.2315839504        0.6230673565
  F         5.7495923906       16.7308731270       15.2983212536
  F         5.5064488879       17.6786088078        1.5667901644
  F         4.8553503286       15.2361873193       16.6280914318
  F         6.4006842433       19.1732998477        0.2370212177
  F         6.7177616998       14.7301299069       13.9019477246
  F         4.5382780416       19.6793512984        2.9631664268
  F         8.5635387145       15.7672883348       13.2736479104
  F         2.6925012134       18.6421935932        3.5914651095
  F         8.6904902924       14.1490722330       14.7535101519
  F         2.5655503919       20.2604090372        2.1116028540
